/*--------------------------------*- C++ -*----------------------------------*\
  =========                 |
  \\      /  F ield         | OpenFOAM: The Open Source CFD Toolbox
   \\    /   O peration     | Website:  https://openfoam.org
    \\  /    A nd           | Version:  6
     \\/     M anipulation  |
\*---------------------------------------------------------------------------*/
FoamFile
{
    version     2.0;
    format      ascii;
    class       dictionary;
    object      blockMeshDict;
}
// * * * * * * * * * * * * * * * * * * * * * * * * * * * * * * * * * * * * * //

convertToMeters 1;

vertices
(
    (-88.388347 -88.388347 -250)
    (88.388347 -88.388347 -250)
    (88.388347 88.388347 -250)
    (-88.388347 88.388347 -250)
    (-88.388347 -88.388347 250)
    (88.388347 -88.388347 250)
    (88.388347 88.388347 250)
    (-88.388347 88.388347 250)
);

blocks
(
    hex (0 1 2 3 4 5 6 7) (30 30 50) simpleGrading (1 1 1)
);

edges
(
    arc 5 4 (0 -125 250)
    arc 4 7 (-125 0 250)
    arc 7 6 (0 125 250)
    arc 6 5 (125 0 250)
    arc 1 0 (0 -125 -250)
    arc 0 3 (-125 0 -250)
    arc 3 2 (0 125 -250)
    arc 2 1 (125 0 -250)
);

patches
(
    patch inlet
    (
        (7 6 5 4)
    )
    patch outlet
    (
        (0 1 2 3)
    )
    wall walls
    (
        (4 5 1 0)
        (3 2 6 7)
        (4 0 3 7)
        (5 6 2 1)
    )
);

mergePatchPairs
(
);

// ************************************************************************* //
